
&RUN
   TITLE ice4
   LIBPATH ../libraries/testlib2
   SEED 991
   NSAMPLE 80
   MOVES   5000000
   PRINT   1000
   PROBE   1000
   DUMP    10000
&END

&CURVE XAS.DKSfwhm
  EXPPATH ../refdata/computed_xas_ice_ref.data
  SIGMA 0.001
  AREARENORM
&END

