
&RUN
   TITLE t5
   LIBPATH ../libraries/testlib
   SEED 139
   NSAMPLE 100
   MOVES   0
   PRINT   1000
   PROBE   1000
   DUMP    10000
   RESTART references/test5.restart
&END

&ANALYSIS
   CHUNKS 10 100
&END

&PCF
   RMIN   0.0
   RMAX   5.0
   DR     0.02
   FIT    1.3 3.0
   PARTIAL 0 1
   NUMBERDENSITY 0.4
   PATH ../refdata/gr_OH_water.data
   SIGMA 0.01
&END

&PCF
   RMIN   0.0
   RMAX   20.5
   DR     0.1
   FIT    2.0 5.0
   PARTIAL 0 0
   NUMBERDENSITY 0.1
   PATH ../refdata/gr_OO_water.data
   SIGMA 0.01
&END

&CURVE bas
   EXPPATH ../refdata/computed_exafs_water_ref.data
   SIGMA 0.1
   AREARENORM
&END
